
I am R1 - Robo City. welcome onboard...no end...end..

new line..

